data/shbh_evnc_2/p13u/DSSfiles/EV_ChargingStations.dss
New Line.line_p13uhs3_69-p13uts3_69x_cs_1188 Units=km Length=1.0335543318545353e-07 bus1=p13uhs3_69-p13uts3_69x.1.2 bus2=p13uhs3_69-p13uts3_69x_cs_1188.1.2 switch=n enabled=y Linecode=3P_OH_AL_ACSR_477kcmil_Hawk3 
New Transformer.ts(r:p13uhs3_69-p13uts3_69x_cs_1188-bus_cs_258_968_public_publiclevel272ac) phases=3 windings=2 %loadloss=1.6 wdg=1 conn=wye Kv=12.47 kva=300.0 %R=0.91198 bus=p13uhs3_69-p13uts3_69x_cs_1188 wdg=2 conn=wye Kv=0.208 kva=10.4 %R=0.91198 bus=bus_cs_258_968_public_publiclevel272ac XHL=3.39 
New Load.load_cs_258_968_public_publiclevel272ac conn=wye bus1=bus_cs_258_968_public_publiclevel272ac kV=0.208 Vminpu=0.8 Vmaxpu=1.2 model=1 kW=.001 kvar=0.0002 Phases=2 
